Version 4
SHEET 1 880 680
WIRE 64 80 16 80
WIRE 192 80 64 80
WIRE 544 96 512 96
WIRE 672 96 544 96
WIRE 672 112 672 96
WIRE 96 128 64 128
WIRE 544 144 544 96
WIRE 544 144 512 144
WIRE 16 160 16 80
WIRE 96 176 96 128
WIRE 96 176 64 176
WIRE 192 176 192 160
WIRE 192 176 96 176
WIRE 464 208 464 112
WIRE 512 208 512 192
WIRE 512 208 464 208
WIRE 672 208 672 192
WIRE 672 208 512 208
WIRE 64 224 64 176
WIRE 512 240 512 208
FLAG 64 224 0
FLAG 512 240 0
DATAFLAG 64 80 "$-0.38"
DATAFLAG 128 176 ""
DATAFLAG 128 176 ""
DATAFLAG 96 144 ""
DATAFLAG 96 144 ""
DATAFLAG 544 96 "$-0.56"
SYMBOL N_PSM025 16 80 R0
SYMATTR InstName M1
SYMATTR Value2 l=1u w=12u
SYMBOL current 192 160 R180
WINDOW 0 24 80 Left 2
WINDOW 3 24 0 Left 2
WINDOW 123 0 0 Left 0
WINDOW 39 0 0 Left 0
SYMATTR InstName I1
SYMATTR Value 30µ
SYMBOL P_PSM025 464 192 M180
SYMATTR InstName M2
SYMATTR Value2 l=1u w=26u
SYMBOL current 672 192 R180
WINDOW 0 24 80 Left 2
WINDOW 3 24 0 Left 2
WINDOW 123 0 0 Left 0
WINDOW 39 0 0 Left 0
SYMATTR InstName I2
SYMATTR Value 30µ
TEXT 216 216 Left 2 !.op
TEXT 272 40 Left 2 !.lib PSM025.mos
