Version 4
SHEET 1 936 680
WIRE 64 96 -32 96
WIRE 256 96 192 96
WIRE -32 112 -32 96
WIRE 64 128 48 128
WIRE 336 128 192 128
WIRE 768 128 544 128
WIRE 672 144 672 112
WIRE 864 144 864 112
WIRE 64 160 48 160
WIRE 272 160 192 160
WIRE 336 160 336 128
WIRE 768 160 768 128
WIRE 768 160 720 160
WIRE 816 160 768 160
WIRE 768 208 720 208
WIRE 816 208 768 208
WIRE 768 240 768 208
WIRE 768 240 720 240
WIRE 336 272 336 240
WIRE 544 272 544 128
WIRE 672 272 672 224
WIRE 784 272 672 272
WIRE 864 272 864 224
WIRE 864 272 784 272
WIRE 544 368 544 352
WIRE 720 368 720 240
WIRE 720 368 544 368
WIRE 784 368 784 352
WIRE 784 368 720 368
WIRE 544 384 544 368
FLAG 336 272 0
FLAG -32 192 0
FLAG 48 128 V1
FLAG 48 160 V2
FLAG 544 384 0
FLAG 864 112 V1
FLAG 672 112 V2
FLAG 256 96 V0
FLAG 272 160 Vout
SYMBOL voltage 336 144 R0
SYMATTR InstName VDD
SYMATTR Value 2.5
SYMBOL current -32 112 R0
SYMATTR InstName IB
SYMATTR Value 30µ
SYMBOL voltage 544 256 R0
SYMATTR InstName Vd
SYMATTR Value 0
SYMBOL voltage 784 256 R0
WINDOW 0 39 44 Left 2
SYMATTR InstName Vc
SYMATTR Value 0
SYMBOL e 864 128 R0
SYMATTR InstName E2
SYMATTR Value -0.5
SYMBOL e 672 128 M0
SYMATTR InstName E1
SYMATTR Value 0.5
SYMBOL OTAPMOS 128 128 R0
SYMATTR InstName X1
TEXT 96 352 Left 2 !.dc Vd -300m 300m 1m
