Version 4
SHEET 1 1088 680
WIRE 768 0 608 0
WIRE 816 0 768 0
WIRE -96 48 -160 48
WIRE 224 48 -96 48
WIRE 320 48 224 48
WIRE 480 48 320 48
WIRE 608 48 608 0
WIRE 608 48 480 48
WIRE 672 48 608 48
WIRE 176 64 -48 64
WIRE 544 64 528 64
WIRE 560 64 544 64
WIRE -160 96 -160 48
WIRE -96 96 -160 96
WIRE 320 96 320 48
WIRE 320 96 224 96
WIRE 480 96 320 96
WIRE 672 96 672 48
WIRE 672 96 608 96
WIRE -48 144 -48 64
WIRE -48 144 -96 144
WIRE 224 144 128 144
WIRE 320 144 224 144
WIRE 544 144 544 64
WIRE 544 144 480 144
WIRE -96 176 -96 144
WIRE 768 176 768 0
WIRE 864 176 768 176
WIRE 128 192 128 144
WIRE 320 192 320 144
WIRE 480 192 480 144
WIRE 80 208 32 208
WIRE 320 208 320 192
WIRE 400 208 368 208
WIRE 976 224 864 224
WIRE 224 240 128 240
WIRE 320 240 224 240
WIRE 608 256 608 144
WIRE 736 256 608 256
WIRE 816 256 736 256
WIRE 976 256 976 224
WIRE 736 304 736 256
WIRE 864 320 864 272
WIRE 912 320 864 320
WIRE 224 336 224 240
WIRE 128 400 128 288
WIRE 128 400 48 400
WIRE 320 400 320 288
WIRE 432 400 320 400
WIRE -96 416 -96 368
WIRE 128 416 128 400
WIRE 320 416 320 400
WIRE 608 416 608 256
WIRE 864 416 864 320
WIRE 864 416 800 416
WIRE 928 416 864 416
WIRE -96 464 -144 464
WIRE 192 464 128 464
WIRE 320 464 272 464
WIRE 656 464 608 464
WIRE 864 464 800 464
WIRE 928 464 864 464
WIRE 16 496 16 448
WIRE 16 496 -48 496
WIRE 48 496 48 400
WIRE 48 496 16 496
WIRE 80 496 48 496
WIRE 432 496 432 400
WIRE 432 496 368 496
WIRE 480 496 432 496
WIRE 560 496 480 496
WIRE 752 496 720 496
WIRE 1056 496 976 496
WIRE 864 512 864 464
WIRE 864 512 800 512
WIRE 928 512 864 512
WIRE 480 528 480 496
WIRE -144 560 -144 464
WIRE -96 560 -96 512
WIRE -96 560 -144 560
WIRE 128 560 128 512
WIRE 128 560 -96 560
WIRE 192 560 192 464
WIRE 192 560 128 560
WIRE 272 560 272 464
WIRE 272 560 192 560
WIRE 320 560 320 512
WIRE 320 560 272 560
WIRE 608 560 608 512
WIRE 608 560 320 560
WIRE 656 560 656 464
WIRE 656 560 608 560
WIRE 864 560 864 512
WIRE 864 560 656 560
WIRE 864 592 864 560
FLAG -96 368 A
FLAG 480 192 A
FLAG 16 448 H
FLAG 720 496 H
FLAG 1056 496 K
FLAG 480 528 K
FLAG 976 256 0
FLAG 816 0 VDD
IOPIN 816 0 BiDir
FLAG 400 208 V2
IOPIN 400 208 In
FLAG 32 208 V1
IOPIN 32 208 In
FLAG 224 336 VDD
IOPIN 224 336 BiDir
FLAG -96 176 IB
IOPIN -96 176 In
FLAG 912 320 Vout
IOPIN 912 320 Out
FLAG 736 304 V0
IOPIN 736 304 Out
FLAG 864 592 0
SYMBOL P_PSM025 -48 144 R180
SYMATTR InstName M4
SYMATTR Value2 l=1u w=26u
SYMBOL P_PSM025 176 144 M180
SYMATTR InstName M3
SYMATTR Value2 l=1u w=26u
SYMBOL P_PSM025 368 288 R180
SYMATTR InstName M2
SYMATTR Value2 l=1u w=13u
SYMBOL N_PSM025 80 416 R0
SYMATTR InstName M6
SYMATTR Value2 l=1u w=6u
SYMBOL N_PSM025 368 416 M0
SYMATTR InstName M7
SYMATTR Value2 l=1u w=6u
SYMBOL N_PSM025 -48 416 M0
SYMATTR InstName M5
SYMATTR Value2 l=1u w=6u
SYMBOL N_PSM025 560 416 R0
SYMATTR InstName M8
SYMATTR Value2 l=1u w=6u
SYMBOL P_PSM025 528 144 R180
SYMATTR InstName M9
SYMATTR Value2 l=1u w=26u
SYMBOL P_PSM025 560 144 M180
SYMATTR InstName M10
SYMATTR Value2 l=1u w=26u
SYMBOL N_PSM025 816 176 R0
SYMATTR InstName M11
SYMATTR Value2 l=1u w=12u
SYMBOL N_PSM025 752 416 R0
SYMATTR InstName M12
SYMATTR Value2 l=1u w=6u
SYMBOL N_PSM025 976 416 M0
SYMATTR InstName M13
SYMATTR Value2 l=1u w=6u
SYMBOL P_PSM025 80 288 M180
SYMATTR InstName M1
SYMATTR Value2 l=1u w=13u
TEXT 72 -56 Left 2 !.lib PSM025.mos
